! CAM-B3LYP Def2-TZVP NormalPrint AIM Hirshfeld NPA NBO TightSCF Printbasis PrintMOs ENGRAD
%output
 Print[P_Density]1
 Print[P_Hirshfeld]1
 Print[P_SpinDensity]1
 Print[P_Iter_P]1
 Print[P_NPA]1
end

* xyz  1 1
   C      0.103553    1.420152   -0.000218
   C     -1.251699    1.801142   -0.000100
   C     -2.214515    0.834342    0.000023
   C     -1.831026   -0.574600    0.000043
   C     -0.415055   -0.921375    0.000005
   C      0.525592    0.065913   -0.000105
   H      0.867149    2.189315   -0.000379
   H     -1.511336    2.850956   -0.000128
   H     -3.273981    1.057208    0.000109
   N     -2.788790   -1.435560    0.000161
   H     -0.111003   -1.962628    0.000114
   H     -2.455114   -2.405883    0.000202
   C      1.981368   -0.331125   -0.000029
   O      2.331669   -1.475499   -0.000317
   O      2.781713    0.738928    0.000415
   H      3.709459    0.445825    0.000450
*



