%chk=C6H5CH2-.chk
# opt freq b3lyp def2tzvp

opt meta

-1 1
 C                0    0.03632978   -1.79509940    0.02199256
 C                0    1.23735090   -1.07391004   -0.01483332
 C                0    1.21405533    0.28104944   -0.02528120
 C                0   -0.01105550    0.96101137    0.00074147
 C                0   -1.21207663    0.23982201    0.03756695
 C                0   -1.18878108   -1.11513748    0.04801413
 H                0    0.05472283   -2.86490950    0.03024149
 H                0    2.17275019   -1.59307607   -0.03470281
 H                0    2.13106163    0.83169353   -0.05339755
 H                0   -2.14747594    0.75898804    0.05743563
 C               -1   -0.03435104    2.31597087   -0.00970517
 H                0    0.88265529    2.86661496   -0.03782025
 H                0   -0.96975031    2.83513690    0.01016516
 C                0   -2.50858450   -1.90765325    0.08848213
 O                0   -3.60868408   -1.29707521    0.11184724
 O                0   -2.48400310   -3.33739945    0.09950830
 H                0   -3.27361897   -3.67434523   -0.33011284

