%chk=C6H5O+.chk
# opt freq b3lyp def2tzvp

opt

1 1
 C                  0.03076528   -1.74118403    0.04029373
 C                  1.25700999   -1.03377497    0.02507221
 C                  1.28823079    0.32160163    0.00153034
 C                 -0.03220754    1.08653256   -0.00850900
 C                 -1.31728670    0.26370363    0.00885804
 C                 -1.22575858   -1.08894535    0.03205390
 H                  2.17736525   -1.57948014    0.03228806
 H                  2.22136484    0.84508279   -0.00979744
 H                 -2.27280181    0.74521648    0.00283866
 H                 -2.12090984   -1.67499348    0.04437427
 O                 -0.06022079    2.34443339   -0.03021858
 C                  0.06504722   -3.28057324    0.06685667
 O                 -1.01047927   -3.93373455    0.08077186
 O                  1.31906961   -3.96777732    0.07570876
 H                  1.22188318   -4.81664939   -0.36197956

