%chk=C6H5CH2+o.chk
# opt=(tight,modredundant) freq b3lyp def2tzvp

opt

1 1
 C                  0.01107274   -1.79358390   -0.06639469
 C                  1.18749742   -1.07855062    0.18667915
 C                  1.16173830    0.27565770    0.23168941
 C                 -0.03450824    0.96974911   -0.00447417
 C                 -1.21856232    0.24634666   -0.21243267
 C                 -1.19412744   -1.10787796   -0.25769001
 H                  2.10735666   -1.60147518    0.34576676
 H                  2.05838950    0.81828229    0.44727040
 H                 -2.14527143    0.76651838   -0.33705853
 H                 -2.09675156   -1.65324460   -0.43864563
 C                 -0.07914649    2.36266999    0.14283781
 H                 -0.26393074    2.79327209    1.10478199
 H                  0.07155545    2.99559389   -0.70663041
 C                  0.04211148   -3.33190567   -0.13122312
 O                  1.12603256   -3.94722874    0.04216422
 O                 -1.16079532   -4.06111655   -0.38845203
 H                 -1.11373220   -4.91803443    0.04175351

D 12 11 4 5 90.0 F

