%chk=C6H5NH+.chk
#P B3LYP/def2tzvp nosymm Density=Current

Single-Point

1 1
C 0.01278430 -1.76304419 0.00000000
C 1.24999109 -1.09093007 0.00000000
C 1.25984754 0.27355027 0.00000000
C 0.00000000 1.01238425 0.00000000
C -1.25711669 0.26870978 0.00000000
C -1.23371473 -1.09154121 0.00000000
H 0.01200744 -2.84767578 0.00000000
H 2.17036087 -1.65871990 0.00000000
H 2.17194807 0.85682686 0.00000000
N 0.08831621 2.29682198 0.00000000
H -2.18816867 0.82323111 0.00000000
H -2.14890880 -1.66796387 0.00000000
H -0.82620141 2.76177480 0.00000000



