%chk=C6H4-OH-2.chk
# opt freq b3lyp def2tzvp

opt meta

0 1
 C                  1.20720217   -0.70065789    0.00000000
 C                  1.20720217    0.68947114    0.00000000
 C                  0.00509579    1.38532901    0.00000000
 C                 -1.20720217    0.70065789    0.00000000
 C                 -1.20720217   -0.68947114    0.00000000
 C                 -0.00509579   -1.38532901    0.00000000
 O                  2.42158347   -1.33812988    0.00000000
 H                  2.15154731    1.21736109    0.00000000
 H                  0.01538568    2.47005037    0.00000000
 O                 -2.42158347    1.33812988    0.00000000
 H                 -2.15154731   -1.21736109    0.00000000
 H                 -2.28522040    2.29168294    0.00000000
 H                  3.12897673   -0.68433090   -0.00000000
 C                 -0.01970389   -2.92525972    0.00000000
 O                  0.91416972   -3.72616040   -0.00000000
 O                 -1.28007445   -3.42812754   -0.00006836
 H                 -1.26069686   -4.39909889   -0.00007356

