! CAM-B3LYP Def2-TZVP NormalPrint AIM Hirshfeld NPA NBO TightSCF Printbasis PrintMOs ENGRAD
%output
 Print[P_Density]1
 Print[P_Hirshfeld]1
 Print[P_SpinDensity]1
 Print[P_Iter_P]1
 Print[P_NPA]1
end

* xyz  0 1
   C      1.932639   -0.737255    0.058033
   C      0.506062   -1.066804    0.044176
   C     -0.447664   -0.123276    0.002719
   C     -0.096772    1.306490   -0.102994
   C      1.334412    1.631374   -0.040680
   C      2.279508    0.687059    0.028238
   N      2.779423   -1.700789    0.099785
   H      0.259901   -2.119545    0.088473
   N     -1.023150    2.169451   -0.293414
   H      1.597654    2.682827   -0.077703
   H      3.331610    0.948455    0.055910
   H     -0.636784    3.111384   -0.370383
   H      3.737777   -1.346845    0.110060
   C     -1.891089   -0.504042    0.130165
   O     -2.629456   -0.097744    0.983624
   O     -2.258073   -1.412424   -0.801542
   H     -3.186399   -1.636841   -0.625550
*



