%chk=C6H5NH2.chk
#P B3LYP/def2tzvp nosymm Density=Current

Single-Point

0 1
C 0.93537128 0.00000000 0.00238281
C 0.21991924 1.20312775 0.00308528
C -1.16770899 1.19773958 0.00308528
C -1.87500590 0.00000000 0.00327083
C -1.16770899 -1.19773958 0.00308528
C 0.21991924 -1.20312775 0.00308528
N 2.32811227 0.00000000 0.06046324
H 0.75852110 2.14411494 0.00762686
H -1.70017548 2.14104633 0.00211452
H -2.95686736 0.00000000 0.00254513
H -1.70017548 -2.14104633 0.00211452
H 0.75852110 -2.14411494 0.00762686
H  2.77733747 -0.83661613 -0.2766195
H  2.77733747 0.83661613 -0.2766195

