! CAM-B3LYP Def2-TZVP NormalPrint AIM Hirshfeld NPA NBO TightSCF Printbasis PrintMOs ENGRAD
%output
 Print[P_Density]1
 Print[P_Hirshfeld]1
 Print[P_SpinDensity]1
 Print[P_Iter_P]1
 Print[P_NPA]1
end

* xyz  1 1
   C     -0.154673    1.434538    0.000187
   C      1.193490    1.828518    0.000188
   C      2.175390    0.874422    0.000088
   C      1.819025   -0.518903   -0.000044
   C      0.433434   -0.889301   -0.000108
   C     -0.538290    0.080373    0.000036
   H     -0.929131    2.191342    0.000287
   H      1.443454    2.880508    0.000295
   H      3.222388    1.150232    0.000105
   H      0.144167   -1.933446   -0.000260
   C      2.783996   -1.484611   -0.000202
   H      3.838188   -1.231554   -0.000345
   H      2.527544   -2.537906   -0.000507
   C     -1.977751   -0.359936    0.000008
   O     -2.298975   -1.514660    0.000583
   O     -2.816461    0.682035   -0.000595
   H     -3.730844    0.351223   -0.000400
*



