%chk=C6H5CH2-.chk
#P B3LYP/def2tzvp nosymm Density=Current

Single-Point

-1 1
C 0 0.00000000 -1.87359840 0.00000000
C 0 1.19539407 -1.13609343 0.00000000
C 0 1.20828374 0.24234692 0.00000000
C 0 0.00000000 1.03742770 0.00000000
C 0 -1.20828374 0.24234692 0.00000000
C 0 -1.19539407 -1.13609343 0.00000000
H 0 0.00000000 -2.95686748 0.00000000
H 0 2.14678987 -1.66523341 0.00000000
H 0 2.16167914 0.76455731 0.00000000
H 0 -2.16167914 0.76455731 0.00000000
H 0 -2.14678987 -1.66523341 0.00000000
C -1 0.00000000 2.42187554 0.00000000
H 0 0.92653312 2.98447440 0.00000000
H 0 -0.92653312 2.98447440 0.00000000


