! CAM-B3LYP Def2-TZVP NormalPrint AIM Hirshfeld NPA NBO TightSCF Printbasis PrintMOs ENGRAD
%output
 Print[P_Density]1
 Print[P_Hirshfeld]1
 Print[P_SpinDensity]1
 Print[P_Iter_P]1
 Print[P_NPA]1
end

* xyz  0 1
   C     -0.369790    1.256936   -0.000090
   C      0.906490    1.823797   -0.000064
   C      2.058302    1.053646    0.000062
   C      1.990733   -0.340027    0.000123
   C      0.728964   -0.917529    0.000057
   C     -0.444712   -0.150733   -0.000031
   H      0.993317    2.903668   -0.000095
   H      3.025395    1.544428    0.000106
   H      0.640494   -1.994507    0.000086
   C     -1.566084    2.170154   -0.000196
   C      3.241161   -1.179463    0.000057
   H     -1.237707    3.209812   -0.000245
   H     -2.200973    2.002659   -0.870545
   H     -2.201167    2.002662    0.869975
   H      3.858107   -0.970919    0.877608
   H      3.003907   -2.243214    0.003479
   H      3.854728   -0.975908   -0.881053
   C     -1.757100   -0.845687    0.000084
   O     -2.845190   -0.319106    0.000568
   O     -1.643900   -2.201311   -0.000442
   H     -2.551162   -2.541903   -0.000334
*



