! CAM-B3LYP Def2-TZVP NormalPrint AIM Hirshfeld NPA NBO TightSCF Printbasis PrintMOs ENGRAD
%output
 Print[P_Density]1
 Print[P_Hirshfeld]1
 Print[P_SpinDensity]1
 Print[P_Iter_P]1
 Print[P_NPA]1
end

* xyz  0 1
   C     -1.928059   -0.775554    0.067309
   C     -2.319077    0.649364    0.032946
   C     -1.398383    1.613410   -0.046749
   C      0.051713    1.314309   -0.119100
   C      0.453415   -0.123215   -0.002585
   C     -0.477850   -1.084718    0.046200
   H     -3.381882    0.854999    0.064222
   H     -1.654716    2.664583   -0.094554
   H     -0.218335   -2.134968    0.091457
   O      0.860796    2.196330   -0.314572
   O     -2.755317   -1.666937    0.114617
   C      1.910621   -0.443319    0.116037
   O      2.665373    0.124744    0.854493
   O      2.265925   -1.482625   -0.669789
   H      3.206431   -1.658348   -0.503470
*



