! CAM-B3LYP Def2-TZVP NormalPrint AIM Hirshfeld NPA NBO TightSCF Printbasis PrintMOs ENGRAD
%output
 Print[P_Density]1
 Print[P_Hirshfeld]1
 Print[P_SpinDensity]1
 Print[P_Iter_P]1
 Print[P_NPA]1
end

* xyz  -1 1
   C      0.635326    0.041960    0.000004
   C     -0.075981   -1.183186   -0.000124
   C     -1.444900   -1.221674   -0.000100
   C     -2.260402   -0.021633    0.000154
   C     -1.498683    1.213877    0.000092
   C     -0.130609    1.233544    0.000074
   H      0.486970   -2.109239   -0.000275
   H     -1.972516   -2.169814   -0.000229
   H     -2.067482    2.137891    0.000110
   H      0.404673    2.176684    0.000136
   O     -3.513275   -0.049514   -0.000059
   C      2.069731    0.120324   -0.000002
   O      2.768773    1.128225   -0.000238
   O      2.711117   -1.111326    0.000259
   H      3.648545   -0.873880   -0.000023
*



