! CAM-B3LYP Def2-TZVP NormalPrint AIM Hirshfeld NPA NBO TightSCF Printbasis PrintMOs ENGRAD
%output
 Print[P_Density]1
 Print[P_Hirshfeld]1
 Print[P_SpinDensity]1
 Print[P_Iter_P]1
 Print[P_NPA]1
end

* xyz  -1 1
   C      0.672052    0.043119   -0.000006
   C     -0.107167    1.235508   -0.000010
   C     -1.469169    1.214729   -0.000013
   C     -2.232601   -0.019241   -0.000003
   C     -1.416724   -1.218461   -0.000015
   C     -0.053666   -1.182448   -0.000015
   H      0.422146    2.181753   -0.000014
   H     -2.019598    2.151046   -0.000020
   H     -1.926114   -2.177722   -0.000023
   H      0.502523   -2.112374   -0.000025
   C     -3.602632   -0.048586    0.000029
   H     -4.146094   -0.985901    0.000035
   H     -4.185380    0.864777    0.000037
   C      2.093703    0.120357    0.000006
   O      2.805181    1.127474    0.000007
   O      2.741590   -1.117818    0.000014
   H      3.675574   -0.868691    0.000011
*



