%chk=C6H4-NH2-2.chk
# opt freq b3lyp def2tzvp

opt meta

0 1
 C                  1.41018273    0.03409337   -0.03018458
 C                  0.68535139    1.23265077    0.01455508
 C                 -0.71559030    1.20391333    0.03596798
 C                 -1.39170065   -0.02338149    0.01264052
 C                 -0.66686934   -1.22193884   -0.03210125
 C                  0.73407234   -1.19320138   -0.05351480
 H                  3.20400610    0.87401276    0.43632707
 H                  3.23678372   -0.75800903    0.39053222
 H                  1.20157664    2.16971762    0.03236546
 H                 -1.26901509    2.11903847    0.07012907
 N                 -2.86121988   -0.05352570    0.03510308
 H                  1.28749713   -2.10832650   -0.08767622
 N                  2.87970204    0.06423744   -0.05264204
 H                 -3.21830317    0.76872057   -0.40807023
 H                 -3.18552555   -0.86330123   -0.45386464
 C                 -1.40984777   -2.57061442   -0.05773750
 O                 -2.66783628   -2.59641937   -0.03851304
 O                 -0.67022392   -3.79363222   -0.10338856
 H                 -1.16827794   -4.48546740    0.33809336

