%chk=C6H5NH+.chk
# opt freq b3lyp def2tzvp

opt meta

1 1
 C                  0.03909322   -1.77821199   -0.06444507
 C                  1.27485392   -1.08859082   -0.02378164
 C                  1.32465879    0.26537711    0.02974429
 C                  0.01491166    1.04837107    0.04588168
 C                 -1.28125756    0.24424154    0.00007162
 C                 -1.20829472   -1.10873066   -0.05205651
 H                  0.04823985   -2.84735867   -0.10617870
 H                  2.18758528   -1.64687718   -0.03552019
 H                  2.26483079    0.77533303    0.06010151
 N                  0.00385370    2.34093970    0.09632984
 H                 -2.23002387    0.73887691    0.00892307
 H                 -0.86636120    2.83351773    0.10596931
 C                 -2.50801599   -1.93344165   -0.09870848
 O                 -3.62347409   -1.35102027   -0.08826292
 O                 -2.44733401   -3.36108717   -0.15389876
 H                 -3.22184118   -3.73115339    0.27597288

