! CAM-B3LYP Def2-TZVP NormalPrint AIM Hirshfeld NPA NBO TightSCF Printbasis PrintMOs ENGRAD
%output
 Print[P_Density]1
 Print[P_Hirshfeld]1
 Print[P_SpinDensity]1
 Print[P_Iter_P]1
 Print[P_NPA]1
end

* xyz  1 1
   C      0.616624    0.023564   -0.000009
   C     -0.085641    1.242879   -0.000018
   C     -1.454011    1.233598   -0.000021
   C     -2.162903   -0.016072    0.000001
   C     -1.418250   -1.244345    0.000027
   C     -0.048744   -1.217065    0.000017
   H      0.479232    2.164952   -0.000023
   H     -2.015942    2.159001   -0.000042
   H     -1.953909   -2.185234    0.000053
   H      0.526896   -2.131072    0.000029
   C     -3.528404   -0.037146   -0.000002
   H     -4.107806    0.879108   -0.000016
   H     -4.079761   -0.970505    0.000009
   C      2.126449    0.109567    0.000002
   O      2.704521    1.160110    0.000055
   O      2.697502   -1.097006   -0.000048
   H      3.664380   -0.990965   -0.000041
*



