! CAM-B3LYP Def2-TZVP NormalPrint AIM Hirshfeld NPA NBO TightSCF Printbasis PrintMOs ENGRAD
%output
 Print[P_Density]1
 Print[P_Hirshfeld]1
 Print[P_SpinDensity]1
 Print[P_Iter_P]1
 Print[P_NPA]1
end

* xyz  -1 1
   C      0.679724    0.040085   -0.001384
   C     -0.067213    1.228631   -0.006410
   C     -1.448838    1.189250   -0.015342
   C     -2.184355   -0.016947   -0.015327
   C     -1.401815   -1.191736   -0.016155
   C     -0.018072   -1.177978   -0.007143
   H      0.464910    2.172520   -0.006839
   H     -2.001250    2.123300   -0.025798
   H     -1.916650   -2.146967   -0.027334
   H      0.537927   -2.107153   -0.008297
   B     -3.794674   -0.047624    0.019635
   H     -4.260607    0.935135   -0.550930
   H     -4.223141   -1.087525   -0.473263
   H     -4.145219   -0.005576    1.202421
   C      2.137288    0.115636    0.004561
   O      2.817347    1.125480    0.007769
   O      2.761564   -1.109261    0.007566
   H      3.705802   -0.897017    0.012393
*



