%chk=C6H5NH-.chk
# opt freq b3lyp def2tzvp

opt

-1 1
 C                 -0.01264804   -1.76456922    0.05300488
 C                  1.23649955   -1.09916520    0.01831774
 C                  1.31302789    0.25391657   -0.02513162
 C                  0.01898288    1.06268024   -0.03637325
 C                 -1.29282288    0.28394617    0.00256782
 C                 -1.24658661   -1.07055034    0.04471205
 H                  2.13803900   -1.67541060    0.02655355
 H                  2.26309419    0.74544684   -0.05105433
 N                  0.03344736    2.35555348   -0.07724589
 H                 -2.23164728    0.79724396   -0.00327369
 H                 -2.16078590   -1.62587133    0.07224893
 H                 -0.82688084    2.86525134   -0.08383920
 C                 -0.02986766   -3.30370394    0.10166446
 O                  1.05276933   -3.94510777    0.10996056
 O                 -1.27612664   -4.00403247    0.13742128
 H                 -1.17570264   -4.85795016   -0.28959131

