%chk=C6H5CH2-o.chk
#P B3LYP/def2tzvp nosymm Density=Current

Single-Point

-1 1
C 0.000000 -1.869617 0.000000
C 1.196338 -1.157448 0.000000
C 1.187286 0.236430 0.000000
C 0.000000 1.011928 0.000000
C -1.187286 0.236430 0.000000
C -1.196338 -1.157448 0.000000
H 0.000000 -2.955014 0.000000
H 2.142146 -1.693820 0.000000
H 2.121947 0.786942 0.000000
H -2.121947 0.786942 0.000000
H -2.142146 -1.693820 0.000000
C 0.000000 2.483490 0.000000
H 0.000000 3.033092 0.932550
H 0.000000 3.033092 -0.932550


