%chk=C6H5CH2+o.chk
#P B3LYP/def2tzvp nosymm Density=Current

Single-Point

1 1
C 0.000000 -1.822047 0.000000
C 1.199226 -1.123877 0.000000
C 1.229764 0.261309 0.000000
C 0.000000 0.960317 0.000000
C -1.229764 0.261309 0.000000
C -1.199226 -1.123877 0.000000
H 0.000000 -2.903121 0.000000
H 2.144382 -1.653448 0.000000
H 2.168900 0.794364 0.000000
H -2.168900 0.794364 0.000000
H -2.144382 -1.653448 0.000000
C 0.000000 2.372370 0.000000
H 0.000000 2.954138 0.927061
H 0.000000 2.954138 -0.927061


