%chk=C6H6.chk
#P SAC-CI/def2tzvp nosymm Density=Current

Single-Point

0 1
C 1.20467177 0.69551377 0.00000000  
C 0.00000000 1.39102632 0.00000000  
C -1.20467177 0.69551377 0.00000000 
C -1.20467177 -0.69551377 0.00000000
C 0.00000000 -1.39102632 0.00000000 
C 1.20467177 -0.69551377 0.00000000 
H 2.14253772 1.23699958 0.00000000  
H 0.00000000 2.47398441 0.00000000  
H -2.14253772 1.23699958 0.00000000 
H -2.14253772 -1.23699958 0.00000000
H 0.00000000 -2.47398441 0.00000000 
H 2.14253772 -1.23699958 0.00000000 

