%chk=C6H4(CH2)2.chk
#P B3LYP/def2tzvp nosymm Density=Current

Single-Point

0 1
C 0.00000000 1.44255674 0.00000000
C 1.23576101 0.67162412 0.00000000
C 1.23576101 -0.67162412 0.00000000
C 0.00000000 -1.44255674 0.00000000
C -1.23576101 -0.67162412 0.00000000
C -1.23576101 0.67162412 0.00000000
C 0.00000000 2.79118410 0.00000000
H 2.17131457 1.21884313 0.00000000
H 2.17131457 -1.21884313 0.00000000
C 0.00000000 -2.79118410 0.00000000
H -2.17131457 -1.21884313 0.00000000
H -2.17131457 1.21884313 0.00000000
H -0.92363598 -3.35516023 0.00000000
H 0.92363598 -3.35516023 0.00000000
H 0.92363598 3.35516023 0.00000000
H -0.92363598 3.35516023 0.00000000

