%chk=C6H4O2.chk
# opt freq b3lyp def2tzvp

opt meta

0 1
 C                  0.02570917    1.44285968    0.01901102
 C                  1.35706262    0.66884677    0.02042021
 C                  1.35319918   -0.68602623   -0.00909683
 C                  0.01745544   -1.45164174   -0.04404770
 C                 -1.31389804   -0.67762888   -0.04545485
 C                 -1.31003459    0.67724414   -0.01593832
 H                  2.28514431    1.20080041    0.04470408
 H                  2.27823047   -1.22381443   -0.00811751
 H                 -2.23506585    1.21503239   -0.01691994
 O                  0.01386798   -2.70973807   -0.07145780
 O                  0.02929667    2.70095607    0.04641829
 C                 -2.64964179   -1.44324441   -0.08040460
 O                 -2.65322928   -2.70134078   -0.10781282
 O                 -3.88589858   -0.72451815   -0.08171222
 H                 -4.56255677   -1.25094724    0.35026707

