! CAM-B3LYP Def2-TZVP NormalPrint AIM Hirshfeld NPA NBO TightSCF Printbasis PrintMOs ENGRAD
%output
 Print[P_Density]1
 Print[P_Hirshfeld]1
 Print[P_SpinDensity]1
 Print[P_Iter_P]1
 Print[P_NPA]1
end

* xyz  -1 1
   C     -0.173876    1.452093   -0.000735
   C      1.178808    1.786530   -0.000317
   C      2.171677    0.821407   -0.000147
   C      1.887663   -0.594479   -0.000673
   C      0.478300   -0.899188   -0.000063
   C     -0.507152    0.084260   -0.000255
   H     -0.942558    2.210080   -0.000669
   H      1.461774    2.836506   -0.000258
   H      3.218391    1.109792    0.000290
   H      0.187194   -1.941925    0.000377
   O      2.785409   -1.479961    0.001186
   C     -1.914974   -0.349795   -0.000107
   O     -2.335141   -1.489411   -0.001244
   O     -2.820952    0.686420    0.001693
   H     -3.682007    0.244200    0.000961
*



