! CAM-B3LYP Def2-TZVP NormalPrint AIM Hirshfeld NPA NBO TightSCF Printbasis PrintMOs ENGRAD
%output
 Print[P_Density]1
 Print[P_Hirshfeld]1
 Print[P_SpinDensity]1
 Print[P_Iter_P]1
 Print[P_NPA]1
end

* xyz  1 1
   C     -0.596407    0.027402    0.000366
   C      0.092678    1.257730    0.000981
   C      1.456778    1.257490    0.000927
   C      2.187402   -0.004941    0.000240
   C      1.433070   -1.253978   -0.001459
   C      0.072735   -1.224230   -0.001207
   H     -0.483654    2.172876    0.001381
   H      2.042444    2.167975    0.001556
   N      3.473663    0.071792    0.000419
   H      1.978270   -2.190506   -0.002706
   H     -0.510321   -2.133864   -0.002186
   H      3.929858   -0.847185   -0.000583
   C     -2.110633    0.102457   -0.000082
   O     -2.686935    1.153347   -0.002822
   O     -2.669039   -1.106718    0.002640
   H     -3.638188   -1.016457    0.002453
*



