! CAM-B3LYP Def2-TZVP NormalPrint AIM Hirshfeld NPA NBO TightSCF Printbasis PrintMOs ENGRAD
%output
 Print[P_Density]1
 Print[P_Hirshfeld]1
 Print[P_SpinDensity]1
 Print[P_Iter_P]1
 Print[P_NPA]1
end

* xyz  -1 1
   C     -0.651631    0.044341   -0.000014
   C      0.116045    1.241634   -0.000035
   C      1.479601    1.231150   -0.000030
   C      2.248960    0.002259   -0.000033
   C      1.439907   -1.202656    0.000014
   C      0.073200   -1.175003    0.000022
   H     -0.421245    2.183292   -0.000046
   H      2.041335    2.158696   -0.000030
   N      3.561903    0.044101    0.000032
   H      1.959513   -2.157578    0.000026
   H     -0.479500   -2.107107    0.000038
   H      3.921304   -0.912594    0.000072
   C     -2.079726    0.112071   -0.000011
   O     -2.791721    1.114419    0.000077
   O     -2.715750   -1.127602   -0.000044
   H     -3.653100   -0.890720   -0.000027
*



