%chk=C6H5O-.chk
# opt freq b3lyp def2tzvp

opt meta

-1 1
 C                  0.03956821   -1.76936673    0.02368845
 C                  1.23532198   -1.03938279   -0.01121608
 C                  1.20203897    0.31534509   -0.02431795
 C                 -0.02813241    0.98627294   -0.00296046
 C                 -1.22388615    0.25628901    0.03194522
 C                 -1.19060320   -1.09843889    0.04504481
 H                  0.06584677   -2.83899400    0.03402988
 H                  2.17458514   -1.55165109   -0.02752252
 H                  2.11502351    0.87270403   -0.05096831
 H                 -2.16314934    0.76855730    0.04825076
 O                 -0.05903809    2.24423453   -0.01512820
 C                 -2.50461830   -1.90061904    0.08340279
 O                 -3.60926200   -1.29815321    0.10258048
 O                 -2.46949824   -3.33012085    0.09722809
 H                 -3.25541284   -3.67371052   -0.33391504

