! CAM-B3LYP Def2-TZVP NormalPrint AIM Hirshfeld NPA NBO TightSCF Printbasis PrintMOs ENGRAD
%output
 Print[P_Density]1
 Print[P_Hirshfeld]1
 Print[P_SpinDensity]1
 Print[P_Iter_P]1
 Print[P_NPA]1
end

* xyz  0 1
   C     -0.229019    1.270744   -0.000005
   C      1.087578    1.728907   -0.000017
   C      2.158013    0.848592   -0.000019
   C      1.928627   -0.523859   -0.000010
   C      0.625272   -0.992246    0.000000
   C     -0.467460   -0.117872    0.000003
   O     -1.270106    2.141109   -0.000003
   H      1.274911    2.797140   -0.000023
   H      3.171100    1.235802   -0.000027
   O      2.938426   -1.449185   -0.000011
   H      0.453083   -2.057708    0.000006
   H      3.791798   -1.002399   -0.000018
   H     -0.927622    3.042523   -0.000010
   C     -1.847491   -0.667817    0.000014
   O     -2.873486   -0.037179    0.000023
   O     -1.857813   -2.030762    0.000021
   H     -2.792557   -2.285917    0.000032
*



