%chk=C6H5O+.chk
#P B3LYP/def2tzvp nosymm Density=Current

Single-Point

1 1
C 0.00000000 -1.73768605 0.00000000
C 1.25414149 -1.07344801 0.00000000
C 1.28098457 0.28272873 0.00000000
C 0.00000000 1.04611110 0.00000000
C -1.28098457 0.28272873 0.00000000
C -1.25414149 -1.07344801 0.00000000
H 0.00000000 -2.82329964 0.00000000
H 2.16384939 -1.65924881 0.00000000
H 2.19545929 0.86376005 0.00000000
H -2.19545929 0.86376005 0.00000000
H -2.16384939 -1.65924881 0.00000000
O 0.00000000 2.25654478 0.00000000

