%chk=C6H5O-.chk
#P B3LYP/def2tzvp nosymm Density=Current

Single-Point

-1 1
C 0.00000000 -1.82338182 0.00000000
C 1.19678129 -1.09762593 0.00000000
C 1.20911977 0.28612463 0.00000000
C 0.00000000 1.07729702 0.00000000
C -1.20911977 0.28612463 0.00000000
C -1.19678129 -1.09762593 0.00000000
H 0.00000000 -2.90742241 0.00000000
H 2.14385394 -1.63452482 0.00000000
H 2.14975268 0.82930188 0.00000000
H -2.14975268 0.82930188 0.00000000
H -2.14385394 -1.63452482 0.00000000
O 0.00000000 2.34154909 0.00000000


