! CAM-B3LYP Def2-TZVP NormalPrint AIM Hirshfeld NPA NBO TightSCF Printbasis PrintMOs ENGRAD
%output
 Print[P_Density]1
 Print[P_Hirshfeld]1
 Print[P_SpinDensity]1
 Print[P_Iter_P]1
 Print[P_NPA]1
end

* xyz  -1 1
   C      0.201298    1.468440    0.000129
   C     -1.154095    1.812749    0.000103
   C     -2.155720    0.864314    0.000029
   C     -1.890277   -0.555226   -0.000047
   C     -0.483950   -0.874555   -0.000053
   C      0.513065    0.095495    0.000037
   H      0.977982    2.217550    0.000165
   H     -1.429694    2.864448    0.000164
   H     -3.197583    1.167255    0.000005
   N     -2.887589   -1.425016   -0.000124
   H     -0.186553   -1.917097   -0.000123
   H     -2.496242   -2.368344   -0.000182
   C      1.912244   -0.363898    0.000019
   O      2.312147   -1.511882    0.000315
   O      2.837825    0.653497   -0.000324
   H      3.690064    0.194473   -0.000389
*



