%chk=C6H5NH3+.chk
#P B3LYP/def2tzvp nosymm Density=Current

Single-Point

1 1
C 1.912767 0.000000 0.005938
C 1.222940 1.207648 0.001503
C -0.167303 1.217653 -0.005735
C -0.824157 0.000000 -0.008932
C -0.167303 -1.217653 -0.005735
C 1.222940 -1.207648 0.001503
H 2.994414 0.000000 0.009257
H 1.762052 2.145031 0.000424
H -0.709566 2.155895 -0.009396
H -0.709566 -2.155895 -0.009396
H 1.762052 -2.145031 0.000424
N -2.317992 0.000000 0.007719
H -2.690839 -0.825094 -0.469780
H -2.691075 -0.000033 0.962902
H -2.690837 0.825129 -0.469721



