! CAM-B3LYP Def2-TZVP NormalPrint AIM Hirshfeld NPA NBO TightSCF Printbasis PrintMOs ENGRAD
%output
 Print[P_Density]1
 Print[P_Hirshfeld]1
 Print[P_SpinDensity]1
 Print[P_Iter_P]1
 Print[P_NPA]1
end

* xyz  0 1
   C      1.972757   -0.440123   -0.008230
   C      2.105816    0.957651   -0.022419
   C      1.003071    1.781881   -0.004798
   C     -0.307082    1.269020    0.015064
   C     -0.450547   -0.139581    0.012061
   C      0.692192   -0.961560    0.007845
   H      3.933803   -0.874408    0.343907
   H      2.954079   -2.209228    0.233113
   H      3.096199    1.398581   -0.049442
   H      1.141000    2.856903   -0.002662
   N     -1.374073    2.127783    0.081020
   H      0.549744   -2.033426    0.007758
   N      3.108644   -1.264696   -0.086314
   H     -1.220195    3.084804   -0.182637
   H     -2.289007    1.733705   -0.077327
   C     -1.785615   -0.744471   -0.005173
   O     -2.845332   -0.142997   -0.045552
   O     -1.777598   -2.102321    0.020630
   H     -2.707727   -2.372892   -0.002368
*



