! CAM-B3LYP Def2-TZVP NormalPrint AIM Hirshfeld NPA NBO TightSCF Printbasis PrintMOs ENGRAD
%output
 Print[P_Density]1
 Print[P_Hirshfeld]1
 Print[P_SpinDensity]1
 Print[P_Iter_P]1
 Print[P_NPA]1
end

* xyz  -1 1
   C     -0.241373    1.481370    0.000034
   C      1.110995    1.840870    0.000001
   C      2.126033    0.908052   -0.000091
   C      1.880077   -0.517846   -0.000003
   C      0.478731   -0.855168   -0.000023
   C     -0.528975    0.097533    0.000062
   H     -1.028755    2.218682    0.000495
   H      1.374420    2.896006   -0.000089
   H      3.158082    1.247326   -0.000215
   H      0.192859   -1.899910   -0.000176
   C      2.881866   -1.469748    0.000077
   H      3.927152   -1.184681    0.000000
   H      2.650327   -2.527619    0.000033
   C     -1.918417   -0.389620    0.000033
   O     -2.300771   -1.544232   -0.000011
   O     -2.862037    0.611855   -0.000033
   H     -3.705240    0.136562   -0.000226
*



