%chk=C6H5NH-.chk
# opt freq b3lyp def2tzvp

opt meta

-1 1
 C                  0.06868851   -1.79323206    0.00286121
 C                  1.26358465   -1.06102583   -0.00152096
 C                  1.22813088    0.29370950   -0.00301994
 C                 -0.00342770    0.96242277   -0.00018832
 C                 -1.19832384    0.23021654    0.00419295
 C                 -1.16287007   -1.12451880    0.00569182
 H                  0.09668108   -2.86286518    0.00404514
 H                  2.20390695   -1.57160325   -0.00368204
 H                  2.14046060    0.85276521   -0.00636431
 N                 -0.03842364    2.29966410   -0.00166510
 H                 -2.13864614    0.74079395    0.00635534
 H                 -0.91722952    2.77683926    0.00035695
 C                 -2.47594276   -1.92914103    0.01050566
 O                 -3.58143621   -1.32805167   -0.00159230
 O                 -2.43884734   -3.35858064   -0.00453822
 H                 -3.33533290   -3.70189969   -0.01129596

