! CAM-B3LYP Def2-TZVP NormalPrint AIM Hirshfeld NPA NBO TightSCF Printbasis PrintMOs ENGRAD
%output
 Print[P_Density]1
 Print[P_Hirshfeld]1
 Print[P_SpinDensity]1
 Print[P_Iter_P]1
 Print[P_NPA]1
end

* xyz  0 1
   C      1.967359   -0.601824   -0.000225
   C      2.236346    0.825179   -0.000087
   C      1.235162    1.717410    0.000189
   C     -0.176436    1.347533    0.000326
   C     -0.453597   -0.100719    0.000072
   C      0.569846   -0.988246   -0.000141
   C      2.942206   -1.535627   -0.000433
   H      3.268651    1.153847   -0.000187
   H      1.455860    2.778304    0.000338
   C     -1.105834    2.325076    0.000823
   H      0.350372   -2.046483   -0.000349
   H     -2.162753    2.120860    0.000845
   H     -0.784452    3.359235    0.001130
   H      3.988279   -1.258499   -0.000505
   H      2.709509   -2.592182   -0.000536
   C     -1.848595   -0.621134   -0.000287
   O     -2.859946    0.039236   -0.002191
   O     -1.911240   -1.979322    0.001796
   H     -2.854724   -2.200284    0.001011
*



