%chk=C6H4(CH2)2.chk
# opt freq b3lyp def2tzvp

opt meta

0 1
 C                  0.03351109    1.46154446   -0.00067265
 C                  1.36003784    0.67929062    0.00171725
 C                  1.34755469   -0.67585163    0.00088178
 C                  0.00684255   -1.43353216   -0.00246114
 C                 -1.31968420   -0.65127832   -0.00485134
 C                 -1.30720106    0.70386393   -0.00401314
 C                  0.04599423    2.81668671    0.00016506
 H                  2.29157160    1.20573099    0.00403776
 H                  2.26923236   -1.21936566    0.00254420
 C                 -0.00564059   -2.78867441   -0.00329802
 H                 -2.22887874    1.24737796   -0.00567171
 H                 -0.93717435   -3.31511478   -0.00561944
 H                  0.91603708   -3.33218844   -0.00163614
 H                  0.97752799    3.34312708    0.00248627
 H                 -0.87568345    3.36020074   -0.00149523
 C                 -2.66039634   -1.40895885   -0.00819403
 O                 -2.67125598   -2.66723565    0.00566707
 O                 -3.89225776   -0.68286666    0.00621243
 H                 -4.62746524   -1.30012543    0.01405910

