%chk=C6H5OH.chk
#P B3LYP/def2tzvp nosymm Density=Current

Single-Point

0 1
C 0.02168082 -1.85087446 0.00000000
C -1.18373444 -1.15997402 0.00000000
C -1.20047910 0.23039486 0.00000000
C 0.00000000 0.93680239 0.00000000
C 1.21293860 0.25180476 0.00000000
C 1.21625605 -1.13581879 0.00000000
H 0.03157977 -2.93274138 0.00000000
H -2.12123943 -1.70188591 0.00000000
H -2.14414699 0.76573750 0.00000000
O 0.04801839 2.30273909 0.00000000
H 2.13521714 0.81760803 0.00000000
H 2.16214984 -1.66306458 0.00000000
H -0.84767910 2.65842521 0.00000000

