%chk=C6H5CH2+.chk
# opt freq b3lyp def2tzvp

opt meta

1 1
 C                  0.05550420   -1.80006238    0.01003243
 C                  1.24885969   -1.06644060   -0.03026270
 C                  1.21171175    0.28824832   -0.03249725
 C                 -0.02005806    0.95549804    0.00548854
 C                 -1.21341355    0.22187626    0.04578378
 C                 -1.17626561   -1.13281266    0.04801824
 H                  0.08483444   -2.86965886    0.01179784
 H                  2.18934334   -1.57590056   -0.05926357
 H                  2.12286523    0.84838484   -0.06326118
 H                 -2.15389710    0.73133623    0.07478776
 C                 -0.05720601    2.31018697    0.00325358
 H                  0.85394743    2.87032348   -0.02751148
 H                 -0.99768955    2.81964694    0.03225785
 C                 -2.48764524   -1.93899044    0.09229960
 O                 -3.59372427   -1.33982743    0.12640862
 O                 -2.44844691   -3.36845116    0.09465775
 H                 -3.23737992   -3.71090941   -0.33184788

