%chk=C6H4-CH3-2.chk
# opt freq b3lyp def2tzvp

opt meta

0 1
 C                  1.40586608    0.17903648    0.32219441
 C                  0.80884712   -1.04372583    0.65736995
 C                 -0.56792801   -1.22599757    0.46978203
 C                 -1.34768436   -0.18550662   -0.05298042
 C                 -0.75066477    1.03725446   -0.38815935
 C                  0.62611054    1.21952582   -0.20057245
 H                  1.40420840   -1.83816377    1.05651066
 H                 -1.02376544   -2.15960333    0.72569710
 H                 -1.34602575    1.83169179   -0.78730172
 C                  2.91880509    0.37933645    0.52833872
 C                 -2.86062495   -0.38580346   -0.25911615
 H                  3.42112104   -0.55894922    0.41789110
 H                  3.28957709    1.07026521   -0.19970356
 H                  3.09691501    0.76586282    1.51005875
 H                 -3.23139426   -1.07673146    0.46892824
 H                 -3.36293835    0.55248325   -0.14866569
 H                 -3.03874124   -0.77232947   -1.24083517
 C                  1.28217568    2.56321998   -0.56889912
 O                  2.51846331    2.72689304   -0.40045150
 O                  0.48650673    3.62494387   -1.10233449
 H                  0.86855611    4.46883927   -0.85038443

